# generated using pymatgen
data_Y3Fe5O12
_symmetry_space_group_name_H-M   'P 1'
_cell_length_a   12.55995800
_cell_length_b   12.55995800
_cell_length_c   12.55995800
_cell_angle_alpha   90.00000000
_cell_angle_beta   90.00000000
_cell_angle_gamma   90.00000000
_symmetry_Int_Tables_number   1
_chemical_formula_structural   Y3Fe5O12
_chemical_formula_sum   'Y24 Fe40 O96'
_cell_volume   1981.36533911
_cell_formula_units_Z   8
loop_
 _symmetry_equiv_pos_site_id
 _symmetry_equiv_pos_as_xyz
  1  'x, y, z'
loop_
 _atom_type_symbol
 _atom_type_oxidation_number
  Y3+  3.0
  Fe3+  3.0
  O2-  -2.0
loop_
 _atom_site_type_symbol
 _atom_site_label
 _atom_site_symmetry_multiplicity
 _atom_site_fract_x
 _atom_site_fract_y
 _atom_site_fract_z
 _atom_site_occupancy
  Y3+  Y0  1  0.00000000  0.25000000  0.12500000  1
  Y3+  Y1  1  0.62500000  0.00000000  0.25000000  1
  Y3+  Y2  1  0.50000000  0.25000000  0.37500000  1
  Y3+  Y3  1  0.50000000  0.25000000  0.87500000  1
  Y3+  Y4  1  0.37500000  0.50000000  0.25000000  1
  Y3+  Y5  1  0.00000000  0.25000000  0.62500000  1
  Y3+  Y6  1  0.25000000  0.37500000  0.50000000  1
  Y3+  Y7  1  0.25000000  0.87500000  0.50000000  1
  Y3+  Y8  1  0.87500000  0.50000000  0.25000000  1
  Y3+  Y9  1  0.25000000  0.12500000  0.00000000  1
  Y3+  Y10  1  0.25000000  0.62500000  0.00000000  1
  Y3+  Y11  1  0.12500000  0.00000000  0.25000000  1
  Y3+  Y12  1  0.50000000  0.75000000  0.62500000  1
  Y3+  Y13  1  0.12500000  0.50000000  0.75000000  1
  Y3+  Y14  1  0.00000000  0.75000000  0.87500000  1
  Y3+  Y15  1  0.00000000  0.75000000  0.37500000  1
  Y3+  Y16  1  0.87500000  0.00000000  0.75000000  1
  Y3+  Y17  1  0.50000000  0.75000000  0.12500000  1
  Y3+  Y18  1  0.75000000  0.87500000  0.00000000  1
  Y3+  Y19  1  0.75000000  0.37500000  0.00000000  1
  Y3+  Y20  1  0.37500000  0.00000000  0.75000000  1
  Y3+  Y21  1  0.75000000  0.62500000  0.50000000  1
  Y3+  Y22  1  0.75000000  0.12500000  0.50000000  1
  Y3+  Y23  1  0.62500000  0.50000000  0.75000000  1
  Fe3+  Fe24  1  0.37500000  0.50000000  0.75000000  1
  Fe3+  Fe25  1  0.00000000  0.25000000  0.37500000  1
  Fe3+  Fe26  1  0.00000000  0.00000000  0.50000000  1
  Fe3+  Fe27  1  0.50000000  0.75000000  0.37500000  1
  Fe3+  Fe28  1  0.25000000  0.25000000  0.75000000  1
  Fe3+  Fe29  1  0.25000000  0.37500000  0.00000000  1
  Fe3+  Fe30  1  0.50000000  0.00000000  0.00000000  1
  Fe3+  Fe31  1  0.25000000  0.12500000  0.50000000  1
  Fe3+  Fe32  1  0.12500000  0.50000000  0.25000000  1
  Fe3+  Fe33  1  0.75000000  0.12500000  0.00000000  1
  Fe3+  Fe34  1  0.75000000  0.25000000  0.25000000  1
  Fe3+  Fe35  1  0.75000000  0.37500000  0.50000000  1
  Fe3+  Fe36  1  0.00000000  0.00000000  0.00000000  1
  Fe3+  Fe37  1  0.00000000  0.75000000  0.12500000  1
  Fe3+  Fe38  1  0.37500000  0.00000000  0.25000000  1
  Fe3+  Fe39  1  0.25000000  0.75000000  0.25000000  1
  Fe3+  Fe40  1  0.12500000  0.00000000  0.75000000  1
  Fe3+  Fe41  1  0.50000000  0.25000000  0.12500000  1
  Fe3+  Fe42  1  0.25000000  0.25000000  0.25000000  1
  Fe3+  Fe43  1  0.00000000  0.50000000  0.00000000  1
  Fe3+  Fe44  1  0.87500000  0.00000000  0.25000000  1
  Fe3+  Fe45  1  0.50000000  0.75000000  0.87500000  1
  Fe3+  Fe46  1  0.50000000  0.50000000  0.00000000  1
  Fe3+  Fe47  1  0.00000000  0.25000000  0.87500000  1
  Fe3+  Fe48  1  0.75000000  0.75000000  0.25000000  1
  Fe3+  Fe49  1  0.75000000  0.87500000  0.50000000  1
  Fe3+  Fe50  1  0.00000000  0.50000000  0.50000000  1
  Fe3+  Fe51  1  0.75000000  0.62500000  0.00000000  1
  Fe3+  Fe52  1  0.62500000  0.00000000  0.75000000  1
  Fe3+  Fe53  1  0.25000000  0.62500000  0.50000000  1
  Fe3+  Fe54  1  0.25000000  0.75000000  0.75000000  1
  Fe3+  Fe55  1  0.25000000  0.87500000  0.00000000  1
  Fe3+  Fe56  1  0.50000000  0.50000000  0.50000000  1
  Fe3+  Fe57  1  0.50000000  0.25000000  0.62500000  1
  Fe3+  Fe58  1  0.87500000  0.50000000  0.75000000  1
  Fe3+  Fe59  1  0.75000000  0.25000000  0.75000000  1
  Fe3+  Fe60  1  0.62500000  0.50000000  0.25000000  1
  Fe3+  Fe61  1  0.00000000  0.75000000  0.62500000  1
  Fe3+  Fe62  1  0.75000000  0.75000000  0.75000000  1
  Fe3+  Fe63  1  0.50000000  0.00000000  0.50000000  1
  O2-  O64  1  0.15114100  0.47396300  0.94298600  1
  O2-  O65  1  0.02603700  0.44298600  0.15114100  1
  O2-  O66  1  0.59885900  0.30701400  0.72396300  1
  O2-  O67  1  0.44298600  0.15114100  0.02603700  1
  O2-  O68  1  0.30701400  0.22396300  0.40114100  1
  O2-  O69  1  0.80701400  0.27603700  0.59885900  1
  O2-  O70  1  0.52603700  0.44298600  0.34885900  1
  O2-  O71  1  0.69298600  0.22396300  0.90114100  1
  O2-  O72  1  0.02603700  0.55701400  0.34885900  1
  O2-  O73  1  0.77603700  0.90114100  0.19298600  1
  O2-  O74  1  0.15114100  0.97396300  0.05701400  1
  O2-  O75  1  0.19298600  0.77603700  0.90114100  1
  O2-  O76  1  0.55701400  0.34885900  0.02603700  1
  O2-  O77  1  0.65114100  0.02603700  0.05701400  1
  O2-  O78  1  0.94298600  0.15114100  0.47396300  1
  O2-  O79  1  0.34885900  0.47396300  0.05701400  1
  O2-  O80  1  0.22396300  0.59885900  0.19298600  1
  O2-  O81  1  0.05701400  0.65114100  0.02603700  1
  O2-  O82  1  0.22396300  0.40114100  0.30701400  1
  O2-  O83  1  0.84885900  0.47396300  0.44298600  1
  O2-  O84  1  0.90114100  0.19298600  0.77603700  1
  O2-  O85  1  0.22396300  0.90114100  0.69298600  1
  O2-  O86  1  0.27603700  0.59885900  0.80701400  1
  O2-  O87  1  0.05701400  0.34885900  0.47396300  1
  O2-  O88  1  0.34885900  0.52603700  0.44298600  1
  O2-  O89  1  0.09885900  0.19298600  0.27603700  1
  O2-  O90  1  0.44298600  0.84885900  0.47396300  1
  O2-  O91  1  0.44298600  0.34885900  0.52603700  1
  O2-  O92  1  0.27603700  0.90114100  0.30701400  1
  O2-  O93  1  0.30701400  0.72396300  0.59885900  1
  O2-  O94  1  0.30701400  0.27603700  0.90114100  1
  O2-  O95  1  0.72396300  0.59885900  0.30701400  1
  O2-  O96  1  0.47396300  0.05701400  0.34885900  1
  O2-  O97  1  0.27603700  0.09885900  0.19298600  1
  O2-  O98  1  0.97396300  0.05701400  0.15114100  1
  O2-  O99  1  0.05701400  0.15114100  0.97396300  1
  O2-  O100  1  0.47396300  0.94298600  0.15114100  1
  O2-  O101  1  0.59885900  0.19298600  0.22396300  1
  O2-  O102  1  0.90114100  0.30701400  0.27603700  1
  O2-  O103  1  0.15114100  0.02603700  0.44298600  1
  O2-  O104  1  0.19298600  0.27603700  0.09885900  1
  O2-  O105  1  0.59885900  0.80701400  0.27603700  1
  O2-  O106  1  0.34885900  0.02603700  0.55701400  1
  O2-  O107  1  0.47396300  0.44298600  0.84885900  1
  O2-  O108  1  0.19298600  0.22396300  0.59885900  1
  O2-  O109  1  0.02603700  0.05701400  0.65114100  1
  O2-  O110  1  0.40114100  0.30701400  0.22396300  1
  O2-  O111  1  0.90114100  0.69298600  0.22396300  1
  O2-  O112  1  0.65114100  0.97396300  0.44298600  1
  O2-  O113  1  0.52603700  0.94298600  0.65114100  1
  O2-  O114  1  0.09885900  0.80701400  0.22396300  1
  O2-  O115  1  0.94298600  0.65114100  0.52603700  1
  O2-  O116  1  0.80701400  0.72396300  0.90114100  1
  O2-  O117  1  0.30701400  0.77603700  0.09885900  1
  O2-  O118  1  0.02603700  0.94298600  0.84885900  1
  O2-  O119  1  0.19298600  0.72396300  0.40114100  1
  O2-  O120  1  0.52603700  0.05701400  0.84885900  1
  O2-  O121  1  0.27603700  0.40114100  0.69298600  1
  O2-  O122  1  0.65114100  0.47396300  0.55701400  1
  O2-  O123  1  0.69298600  0.27603700  0.40114100  1
  O2-  O124  1  0.05701400  0.84885900  0.52603700  1
  O2-  O125  1  0.15114100  0.52603700  0.55701400  1
  O2-  O126  1  0.44298600  0.65114100  0.97396300  1
  O2-  O127  1  0.84885900  0.97396300  0.55701400  1
  O2-  O128  1  0.72396300  0.09885900  0.69298600  1
  O2-  O129  1  0.55701400  0.15114100  0.52603700  1
  O2-  O130  1  0.72396300  0.90114100  0.80701400  1
  O2-  O131  1  0.34885900  0.97396300  0.94298600  1
  O2-  O132  1  0.40114100  0.69298600  0.27603700  1
  O2-  O133  1  0.72396300  0.40114100  0.19298600  1
  O2-  O134  1  0.77603700  0.09885900  0.30701400  1
  O2-  O135  1  0.55701400  0.84885900  0.97396300  1
  O2-  O136  1  0.84885900  0.02603700  0.94298600  1
  O2-  O137  1  0.59885900  0.69298600  0.77603700  1
  O2-  O138  1  0.94298600  0.34885900  0.97396300  1
  O2-  O139  1  0.94298600  0.84885900  0.02603700  1
  O2-  O140  1  0.77603700  0.40114100  0.80701400  1
  O2-  O141  1  0.80701400  0.22396300  0.09885900  1
  O2-  O142  1  0.80701400  0.77603700  0.40114100  1
  O2-  O143  1  0.22396300  0.09885900  0.80701400  1
  O2-  O144  1  0.97396300  0.55701400  0.84885900  1
  O2-  O145  1  0.77603700  0.59885900  0.69298600  1
  O2-  O146  1  0.47396300  0.55701400  0.65114100  1
  O2-  O147  1  0.55701400  0.65114100  0.47396300  1
  O2-  O148  1  0.97396300  0.44298600  0.65114100  1
  O2-  O149  1  0.09885900  0.69298600  0.72396300  1
  O2-  O150  1  0.40114100  0.80701400  0.77603700  1
  O2-  O151  1  0.65114100  0.52603700  0.94298600  1
  O2-  O152  1  0.69298600  0.77603700  0.59885900  1
  O2-  O153  1  0.09885900  0.30701400  0.77603700  1
  O2-  O154  1  0.84885900  0.52603700  0.05701400  1
  O2-  O155  1  0.97396300  0.94298600  0.34885900  1
  O2-  O156  1  0.69298600  0.72396300  0.09885900  1
  O2-  O157  1  0.52603700  0.55701400  0.15114100  1
  O2-  O158  1  0.90114100  0.80701400  0.72396300  1
  O2-  O159  1  0.40114100  0.19298600  0.72396300  1
