# generated using pymatgen
data_CrI3
_symmetry_space_group_name_H-M   'P 1'
_cell_length_a   6.96854868
_cell_length_b   6.96854868
_cell_length_c   20.75585635
_cell_angle_alpha   90.00000000
_cell_angle_beta   90.00000000
_cell_angle_gamma   120.00000000
_symmetry_Int_Tables_number   1
_chemical_formula_structural   CrI3
_chemical_formula_sum   'Cr6 I18'
_cell_volume   872.88285731
_cell_formula_units_Z   6
loop_
 _symmetry_equiv_pos_site_id
 _symmetry_equiv_pos_as_xyz
  1  'x, y, z'
loop_
 _atom_type_symbol
 _atom_type_oxidation_number
  Cr3+  3.0
  I-  -1.0
loop_
 _atom_site_type_symbol
 _atom_site_label
 _atom_site_symmetry_multiplicity
 _atom_site_fract_x
 _atom_site_fract_y
 _atom_site_fract_z
 _atom_site_occupancy
  Cr3+  Cr0  1  0.22104815  0.11052407  0.00000000  1
  Cr3+  Cr1  1  0.88947593  0.11052407  0.33333333  1
  Cr3+  Cr2  1  0.88947593  0.77895185  0.66666667  1
  Cr3+  Cr3  1  0.55478676  0.77739338  0.00000000  1
  Cr3+  Cr4  1  0.22260662  0.77739338  0.33333333  1
  Cr3+  Cr5  1  0.22260662  0.44521324  0.66666667  1
  I-  I6  1  0.88776395  0.79907555  0.92486928  1
  I-  I7  1  0.20092445  0.08868840  0.25820261  1
  I-  I8  1  0.88776395  0.08868840  0.07513072  1
  I-  I9  1  0.91131160  0.11223605  0.59153594  1
  I-  I10  1  0.20092445  0.11223605  0.74179739  1
  I-  I11  1  0.91131160  0.79907555  0.40846406  1
  I-  I12  1  0.24418299  0.44417362  0.92466634  1
  I-  I13  1  0.55582638  0.80000937  0.25799967  1
  I-  I14  1  0.24418299  0.80000937  0.07533366  1
  I-  I15  1  0.19999063  0.75581701  0.59133300  1
  I-  I16  1  0.55582638  0.75581701  0.74200033  1
  I-  I17  1  0.19999063  0.44417362  0.40866700  1
  I-  I18  1  0.53183183  0.44390725  0.07565284  1
  I-  I19  1  0.55609275  0.08792458  0.40898617  1
  I-  I20  1  0.53183183  0.08792458  0.92434716  1
  I-  I21  1  0.91207542  0.46816817  0.74231950  1
  I-  I22  1  0.55609275  0.46816817  0.59101383  1
  I-  I23  1  0.91207542  0.44390725  0.25768050  1
